97
 energy: -144.079735390183 gnorm: 0.000042653624 xtb: 6.4.1 (afa7bdf)
C         0.00408224827593    0.17498683929908   -1.42460166855924
C        -0.00056875557926   -0.09453201508243    0.08316766813636
C        -0.00578792482679    1.22297090234438    0.86447141039764
C        -1.17204679516642   -0.96661694959587    0.47793485245386
C        -2.51298116174532   -0.70313239098853    0.35113733766862
C        -3.45200189076113   -1.65105286744013    0.78346795098873
C        -4.88191985319805   -1.44662089253264    0.68551064814669
C        -5.50265858885768   -0.37703938613169    0.16264613953352
C        -6.93246583041093   -0.16974267371554    0.06686491017920
C        -7.88160334190370   -1.07171754547459    0.55845764960588
C        -9.23141817185577   -0.81923704637018    0.44527560441765
C        -9.68256760695615    0.34532950207653   -0.17295511506775
N       -11.05370988035768    0.60102977202309   -0.29009311275053
C       -11.68897749902538    1.77608148734950    0.06087514530679
C       -11.16826766195869    2.92296031811208    0.64313336771375
C       -12.03995149716169    3.95834661117242    0.92089869655615
C       -13.40051900225868    3.86019678359834    0.63789887640969
C       -13.92862090615478    2.71208371844244    0.08242116618145
C       -13.07240387667664    1.65755644880029   -0.20579573209067
C       -13.27191057980282    0.34367703966667   -0.74997811809769
C       -14.38912867199713   -0.33848966162204   -1.21326300817721
C       -14.22580804816550   -1.61725604900520   -1.70690620410299
C       -12.96606048150444   -2.21005509649867   -1.75677430030664
C       -11.83969890684793   -1.55152137289974   -1.30212466976325
C       -12.00120156069514   -0.27556939426839   -0.78125676716212
C        -8.75096522292278    1.25285440913011   -0.67140888119168
C        -7.40293280634279    0.99680934889113   -0.54671391209661
C        -2.98683171652971   -2.85087787548769    1.33849318249411
C        -1.63979121524561   -3.12283198003019    1.46852403794483
C        -0.72387175434212   -2.17557855308408    1.03595620845775
C         0.72411888747636   -2.17273644739908    1.04107394713738
C         1.64061565724869   -3.11607147075010    1.48091591704007
C         2.98747319757606   -2.83908521443212    1.35996326431009
C         3.45185101723220   -1.63832873933468    0.80631763614487
C         4.88163793686566   -1.42990604498446    0.71499819930226
C         5.50202408905844   -0.36739340212727    0.17753878813324
C         6.93187784159909   -0.15934215154407    0.08363263908085
C         7.40350190827136    0.98470280426752   -0.57007528805545
C         8.75177644500822    1.23737559297255   -0.69920916138034
C         9.68233567435795    0.34990726945761   -0.16405852669403
N        11.05378895962226    0.60060870445177   -0.28808908357761
C        11.68927922554457    1.78832555645716    0.01671056555131
C        11.16873992165715    2.95740252330222    0.55317537104466
C        12.04066042184569    4.00266784926452    0.79024837161750
C        13.40130078241114    3.89304185760662    0.51185072833745
C        13.92924270082588    2.72376957998485    0.00225360598066
C        13.07278648305088    1.65898871191739   -0.24454256657667
C        13.27208517421642    0.32475548397283   -0.73679553420112
C        14.38922122370875   -0.37531286433137   -1.17278693495040
C        14.22562201102884   -1.67226729730749   -1.61634248296527
C        12.96568202630006   -2.26612303091130   -1.64354528461551
C        11.83941372096793   -1.59000561722605   -1.21525107036434
C        12.00118533835207   -0.29480505889031   -0.74437081976594
C         9.22989735799037   -0.79031800519477    0.49714214150797
C         7.87993047191431   -1.04014337245588    0.61415575764359
C         2.51228138133306   -0.69378002128412    0.36788382411317
C         1.17150363861189   -0.96215096966706    0.48593193204991
H         0.88725719631255    0.74448119678056   -1.70447659720304
H        -0.87957780078362    0.74065762540928   -1.71063108412159
H         0.00801952732606   -0.76409103402395   -1.97404691352950
H        -0.88946958345209    1.80637213168516    0.61666715265008
H         0.87746368867452    1.80965977298452    0.62298018817966
H        -0.00924291559429    1.02513285539417    1.93434325166459
H        -2.84229987731898    0.23072095514152   -0.07762976037282
H        -5.47511934843838   -2.26020644081167    1.08197816509092
H        -4.91175561395248    0.43401402689898   -0.24200347470092
H        -7.56176132827156   -1.97858389996063    1.04743142055258
H        -9.95031331633392   -1.51532575523848    0.85154121785026
H       -10.11885439706092    3.00192530203382    0.88412084469363
H       -11.65820590578513    4.86282225142209    1.37137270445592
H       -14.04853072713682    4.69303331326755    0.86735776301890
H       -14.98558519034303    2.62891805527412   -0.12129103937713
H       -15.36251501050840    0.12795995711109   -1.19003414806370
H       -15.08200013890750   -2.16628025899509   -2.06979788602616
H       -12.86673886297784   -3.20565539184083   -2.16374532574591
H       -10.86538850574878   -2.01256510478149   -1.36309279692874
H        -9.09346172011710    2.14809852611606   -1.16882930822709
H        -6.69163021239572    1.70895363182204   -0.94092688398329
H        -3.70888512928379   -3.58289459547846    1.67294596076929
H        -1.30774951722958   -4.05575085899698    1.89961170252827
H         1.30914863176826   -4.04984438185530    1.91059246010078
H         3.71000812440048   -3.56813119353753    1.69981629936853
H         5.47519865053438   -2.23582388143991    1.12631985070696
H         4.91110179392567    0.43377682406427   -0.24631551246187
H         6.69301878423658    1.68067822067458   -0.99354836844731
H         9.09527077383491    2.11372035703217   -1.22856579924328
H        10.11926062201255    3.04612963339822    0.79045008111730
H        11.65904739840434    4.92432800189972    1.20455116889762
H        14.04949062552504    4.73409097459014    0.70850765612697
H        14.98624717987808    2.63231946460909   -0.19766841371993
H        15.36275717793561    0.09136983094438   -1.16745037166580
H        15.08172868301513   -2.23528116990114   -1.95733869517417
H        12.86611286990879   -3.27675534201616   -2.01153806617737
H        10.86496502198558   -2.05273389581628   -1.25865337139003
H         9.94789193670842   -1.46916613400492    0.93308961545945
H         7.55896964644815   -1.92731910484958    1.13733716310264
H         2.84111204323394    0.24160091027295   -0.05793806806292
