97
 energy: -144.012421792892 gnorm: 0.000095426019 xtb: 6.4.1 (afa7bdf)
C        -0.00196729103638    0.14775130545874   -1.50634649024072
C        -0.00050448374760   -0.06378376127133    0.01085451326960
C         0.00078605841363    1.28352455728283    0.73984785639235
C        -1.17383709737932   -0.91653626936017    0.44403703784010
C        -2.50115052260458   -0.66010451176463    0.31837679964895
C        -3.45883404588093   -1.59948130916531    0.79702130110155
C        -4.85203069192967   -1.40744179623680    0.70640985468881
C        -5.49934802599772   -0.31967528935970    0.16527481154822
C        -6.90408353508340   -0.13227147740645    0.07553732125869
C        -7.85619013288379   -1.05955423390912    0.55036332503408
C        -9.20295893888264   -0.82499666820912    0.43293465915500
C        -9.67294837267853    0.35005227672203   -0.16205301085913
N       -11.04414098190514    0.58635133934947   -0.27898078026393
C       -11.69644456126594    1.75253410461642    0.07147240047948
C       -11.19254575502960    2.90600716928670    0.65631472904296
C       -12.07935141224918    3.92830147913236    0.93586467418323
C       -13.43827861556332    3.81041834345235    0.65349920627976
C       -13.95038808502869    2.65404378615221    0.09812225264288
C       -13.07899813403459    1.61357401048346   -0.19201504736174
C       -13.26037701459104    0.29525393058369   -0.73379958949949
C       -14.36779050096945   -0.40247552398454   -1.19519944271809
C       -14.18616242903778   -1.67912146040021   -1.69025334158118
C       -12.91773498602439   -2.25219554517364   -1.74487760703836
C       -11.80027962165912   -1.57699031319899   -1.29201006718521
C       -11.98015529905805   -0.30489908817416   -0.76677719484769
C        -8.74815622015977    1.28520461342237   -0.63762183513227
C        -7.40263081660827    1.04664031869228   -0.52152717800775
C        -2.97011905986344   -2.79486398941765    1.39869345919491
C        -1.63907905211947   -3.05890578857829    1.52797229323451
C        -0.70462432022204   -2.11900743417197    1.05092557793588
C         0.70418720358948   -2.11946823065717    1.04957350007175
C         1.63892060082385   -3.05969966308104    1.52546808777320
C         2.96987440674293   -2.79640790229836    1.39390701611631
C         3.45825875681685   -1.60192354606508    0.79013467577840
C         4.85139019372489   -1.41062625180334    0.69751822878726
C         5.49872515534144   -0.32703521005411    0.14792470097481
C         6.90347380749005   -0.13915767499862    0.05983340466137
C         7.40266086760451    1.03086741727367   -0.55398194943035
C         8.74828812326402    1.26996495535903   -0.66791064992672
C         9.67258268609259    0.34466036948429   -0.17250429152408
N        11.04391053883008    0.58207904247259   -0.28563719788170
C        11.69171196289068    1.75542215777445    0.04903980251697
C        11.18188978699200    2.91787528827978    0.61050417193419
C        12.06498639575348    3.94650329893778    0.87833004903466
C        13.42599578042823    3.82633999192409    0.60718409529056
C        13.94387150409754    2.66147876428672    0.07541778515806
C        13.07628767180664    1.61450770710154   -0.20252975099555
C        13.26378130791970    0.28725847223904   -0.71982846844154
C        14.37573464548077   -0.41648493892160   -1.16076399386804
C        14.19994999430971   -1.70209532995413   -1.63422176316269
C        12.93292960103109   -2.27837466101087   -1.68790160353894
C        11.81104153079834   -1.59728358366836   -1.25525191916849
C        11.98489416306385   -0.31580227403759   -0.75123566894517
C         9.20194858483841   -0.82155062122066    0.43914099184753
C         7.85510520049682   -1.05694918274213    0.55373539107015
C         2.50030439353844   -0.66219893906781    0.31271960069693
C         1.17305509308554   -0.91750860142476    0.44146210585291
H         0.88184460014489    0.70306125859573   -1.81180527138176
H        -0.88544277196290    0.70460002243133   -1.80992750919731
H        -0.00333898952949   -0.81168464552526   -2.01942346037407
H        -0.88275539975309    1.85888630970003    0.47321862273531
H         0.88453256403476    1.85794905883678    0.47191113964499
H         0.00149741626826    1.12783949850841    1.81667351566259
H        -2.83862090288880    0.25476263382734   -0.14353618288607
H        -5.45486809599612   -2.20985501822646    1.11087801666915
H        -4.90403134924787    0.48742670472169   -0.23917090343198
H        -7.52581822036269   -1.96885704251686    1.02710048174055
H        -9.91450500582641   -1.53668635451241    0.82549441707707
H       -10.14505586063752    2.99944503211377    0.89927805638743
H       -11.71076247886038    4.83727244427148    1.38792179890922
H       -14.09862814603587    4.63305084872908    0.88419296489121
H       -15.00645504831713    2.55494642644793   -0.10271168938545
H       -15.34791114405102    0.04940770818101   -1.17078829218536
H       -15.03497423123700   -2.24037259138826   -2.05152720700194
H       -12.80391016311142   -3.24490037372948   -2.15476284457643
H       -10.81922175141593   -2.02196345523638   -1.35914322789765
H        -9.10471965601351    2.18294930899590   -1.12087215117523
H        -6.69951347738252    1.77218313123415   -0.90540424311011
H        -3.69576667427403   -3.50961327705317    1.76214006370505
H        -1.29708809984580   -3.97384384033158    1.98904255930238
H         1.29721465938459   -3.97420180228424    1.98758779855570
H         3.69573767739284   -3.51133119088212    1.75655080376734
H         5.45431629014367   -2.21056972492966    1.10666111378831
H         4.90351050651494    0.47517253098723   -0.26623443225777
H         6.70002100573549    1.74871018980641   -0.95288988019431
H         9.10539326289642    2.16031100393732   -1.16424825013994
H        10.13266137513325    3.01355561578562    0.84491378506718
H        11.69174901956540    4.86242060409224    1.31218265469535
H        14.08331256532917    4.65408890489167    0.82802620660464
H        15.00144661561849    2.56086916607751   -0.11652652744859
H        15.35485946653288    0.03759202454146   -1.13726142805604
H        15.05235538835507   -2.26817572788099   -1.97912647335938
H        12.82379661140335   -3.27842364279284   -2.08084964705782
H        10.83128341387727   -2.04519996954242   -1.32172609749197
H         9.91288283809266   -1.52516975476464    0.84702799873082
H         7.52422598723903   -1.95879055355347    1.04406402223668
H         2.83753999885045    0.25253794123453   -0.14963505965357
