90
 energy: -140.715781933400 gnorm: 0.000069019248 xtb: 6.4.1 (afa7bdf)
O        -0.00072440078748    1.04196835960443   -0.00399158704877
C        -0.00041173895148   -0.18092733932697   -0.00152475927615
C         1.16341673790543   -1.08430014080027    0.00274291605825
C         2.49562140892144   -0.78012028951738    0.00459499871518
C         3.45327788501069   -1.81755067485716    0.01150966731663
C         4.85286413669422   -1.59067449630317    0.01595467335364
C         5.47982066513881   -0.37645053050062   -0.00191272917080
C         6.88996442342611   -0.15165996669521    0.00595665136261
C         7.36919995612954    1.17137549644444   -0.05529736950145
C         8.71324922133524    1.45311399306492   -0.04993029730322
C         9.64841097893597    0.41687279983195    0.01727204699689
N        11.01551970666690    0.69398676838239    0.02434064663248
C        11.64795659548392    1.63161352026957    0.81970263104302
C        11.12164665812525    2.45648235952437    1.80381179514267
C        11.99220690626143    3.28926076717105    2.48141669683523
C        13.35628045657638    3.29916919295796    2.20105026030094
C        13.89052399444529    2.45857066431952    1.24368947126079
C        13.03565253318915    1.61417509097427    0.54963649595765
C        13.24220985767895    0.61763742457710   -0.46540094624327
C        14.36594111359178    0.16567212713430   -1.14248405044135
C        14.20890514789347   -0.81218045381831   -2.10568695517464
C        12.94913312935303   -1.32257155513764   -2.40877924649854
C        11.81565844808320   -0.88749515153237   -1.74813747522754
C        11.97101790647572    0.07223585060574   -0.75780777322785
C         9.19365240612763   -0.90321449821091    0.07978568189361
C         7.84829947164358   -1.18005761113792    0.07511736957799
C         2.98197346665697   -3.16720088607309    0.01633153269711
C         1.65442140102732   -3.48349116353275    0.01242789623775
C         0.70346256034944   -2.44780364986138    0.00532230322646
C        -0.70322113605891   -2.44815487365064    0.00098376178338
C        -1.65372623733940   -3.48428612375462   -0.00197416312832
C        -2.98143305999540   -3.16863073315886   -0.00756460291634
C        -3.45334913957124   -1.81919105027427   -0.00852536185760
C        -4.85301835726602   -1.59275649659561   -0.01438959481791
C        -5.48001977404254   -0.37849571606315   -0.00127287404861
C        -6.89010394961735   -0.15344286036047   -0.00982091397475
C        -7.36891087638592    1.16991887993679    0.04765536886631
C        -8.71287368105843    1.45204905358265    0.04270252899863
C        -9.64835988084976    0.41585026420385   -0.02029544532470
N       -11.01544748570517    0.69313165572622   -0.02532277668997
C       -11.64976318804722    1.62895605437292   -0.82128706310617
C       -11.12591535799780    2.45125644624872   -1.80885400536070
C       -11.99808578718802    3.28268975589612   -2.48605117984539
C       -13.36137354060646    3.29374383291123   -2.20192302796607
C       -13.89322905355461    2.45569641873232   -1.24100226209578
C       -13.03670962383839    1.61271852787503   -0.54726240755677
C       -13.24075752937247    0.61897839871120    0.47102177066028
C       -14.36267238078414    0.16936485350802    1.15267577752992
C       -14.20316962186073   -0.80577303920026    2.11822545343007
C       -12.94270821580737   -1.31577393802066    2.41910142261352
C       -11.81102110971104   -0.88304123239225    1.75388135696996
C       -11.96894087916931    0.07391180018198    0.76127481017983
C        -9.19401597657159   -0.90452287003528   -0.07993673655580
C        -7.84874016720046   -1.18176684739454   -0.07568519765044
C        -2.49613408768505   -0.78133124659707   -0.00556562880073
C        -1.16379831973084   -1.08487654444188   -0.00212814573577
H         2.79753197690213    0.25576640329542    0.00288744811325
H         5.46160889947666   -2.48564256584695    0.03212101022012
H         4.87572940184194    0.51982358468213   -0.02856289413496
H         6.65726643243129    1.98148220493624   -0.12030441315267
H         9.05752184283017    2.47378979716827   -0.12526657815014
H        10.07000791707729    2.44149071063649    2.04587580541127
H        11.60570941822857    3.94341828839187    3.24875178588551
H        14.00335741117748    3.96658318059395    2.75024058331884
H        14.95062458541279    2.45113299942961    1.04038708125323
H        15.33945175901276    0.57649319230080   -0.92184942563734
H        15.07070826158309   -1.18033185593503   -2.64191188583431
H        12.85426527445667   -2.07177171557163   -3.18071825508104
H        10.84183342498213   -1.27367335754334   -2.00779866104602
H         9.91261170865783   -1.70500649936378    0.16142417484799
H         7.52922022819815   -2.20822997663421    0.14087167356463
H         3.71974276813707   -3.95769161544067    0.02235573451145
H         1.33245554233942   -4.51481982459159    0.01537688110718
H        -1.33129584482841   -4.51547516744486   -0.00050310716463
H        -3.71882656419072   -3.95949059772066   -0.01048539376870
H        -5.46161760777287   -2.48788152289169   -0.02723368664516
H        -4.87586607055672    0.51781812059514    0.02226719871988
H        -6.65667789897858    1.97999591241397    0.10965785645234
H        -9.05677707276308    2.47304408749711    0.11532703103602
H       -10.07494303963736    2.43536195990515   -2.05374928141951
H       -11.61351498067276    3.93488753543219   -3.25602004193599
H       -14.00975602874944    3.96004944745782   -2.75092326663097
H       -14.95275321199929    2.44916098765509   -1.03467926723526
H       -15.33667214137031    0.57994293942120    0.93375285992838
H       -15.06352490107856   -1.17202313561459    2.65806448868514
H       -12.84583842316948   -2.06275278114714    3.19294187411432
H       -10.83657066070343   -1.26881255939483    2.01179636780783
H        -9.91330801752041   -1.70629838083131   -0.15880246002553
H        -7.52994760920900   -2.21018347088567   -0.13904376522165
H        -2.79845793721293    0.25442810920161   -0.00829037686655
