90
 energy: -140.773663816885 gnorm: 0.000071394550 xtb: 6.4.1 (afa7bdf)
O        -0.00021050571149    1.01397150481510   -0.01145019394549
C        -0.00010402314268   -0.19525011841148   -0.00634979089782
C         1.17527372596283   -1.10664223668807    0.00149946011597
C         2.51254866068481   -0.79210444792231    0.00557640177540
C         3.46013886054162   -1.83013125622072    0.01431504500551
C         4.88847962520670   -1.59632111862072    0.02125246011222
C         5.49956349594045   -0.40071818883393   -0.00107666363851
C         6.92802776001199   -0.16541222240943    0.00802113222266
C         7.39348861281404    1.15161936633415   -0.07990205187263
C         8.74056545858791    1.44101209937269   -0.07991060905951
C         9.67566481844162    0.41286297426591    0.01814991272044
N        11.04506802300130    0.69623656766870    0.02398961816125
C        11.67446763821282    1.63299579345486    0.82137763869315
C        11.14513761014623    2.45551686834072    1.80542615290175
C        12.01260062536204    3.28970159940439    2.48442452269039
C        13.37700174991803    3.30502633007380    2.20384731279636
C        13.91330834339945    2.47043069793275    1.24385737361638
C        13.06145955979014    1.62285067227974    0.54815928936454
C        13.27012199605807    0.63188547472880   -0.47032137715090
C        14.39472721736976    0.18461862830715   -1.15091780312006
C        14.24014917125917   -0.79262696415007   -2.11368604123580
C        12.98198278365663   -1.31055562094910   -2.41249601046410
C        11.84835307962012   -0.88118367823476   -1.74924095819387
C        12.00101462036328    0.08149464617936   -0.76175047406937
C         9.22844394431309   -0.90404775138752    0.11296042521442
C         7.88004968509832   -1.18575467943150    0.10441955394102
C         2.99943082792688   -3.15229470094410    0.01900604189434
C         1.65045794625985   -3.47173456384353    0.01439631148453
C         0.72796265375998   -2.44335624732814    0.00562379820519
C        -0.72780535461683   -2.44350381237321    0.00029453785395
C        -1.65014111207839   -3.47206486084667    0.00004610725219
C        -2.99917311952118   -3.15289451023185   -0.00684975796937
C        -3.46008333328560   -1.83080960952763   -0.01258979803060
C        -4.88845671558459   -1.59718073259728   -0.02022654318055
C        -5.49950873259169   -0.40148410173645   -0.00265396058413
C        -6.92795945538656   -0.16611877632283   -0.01135081639760
C        -7.39324550068060    1.15115310906100    0.07384508443930
C        -8.74030758149924    1.44060134443521    0.07494576992743
C        -9.67556173527907    0.41223827351548   -0.01930076151534
N       -11.04497768667169    0.69558622434335   -0.02334920981742
C       -11.67588328184614    1.63069901624198   -0.82146595776334
C       -11.14848121339116    2.45088611544626   -1.80849422990174
C       -12.01722984069850    3.28368334540157   -2.48755141386457
C       -13.38102704533899    3.29992692151783   -2.20409810292180
C       -13.91545283842702    2.46763118653290   -1.24106512514089
C       -13.06229506745949    1.62144315751535   -0.54527722950989
C       -13.26898801030169    0.63277480188976    0.47583654251001
C       -14.39223148189906    0.18720576685247    1.15978843323238
C       -14.23580418136265   -0.78800234272762    2.12432367290910
C       -12.97710906647128   -1.30553910860582    2.42157905875915
C       -11.84480239962589   -0.87780344845814    1.75501769608774
C       -11.99937362520911    0.08276999230403    0.76577624306865
C        -9.22851062661713   -0.90489084406595   -0.11187840984339
C        -7.88011620291858   -1.18663973034283   -0.10441895422578
C        -2.51265149984513   -0.79260137800157   -0.01288946497604
C        -1.17532748887848   -1.10687450788090   -0.00658410364410
H         2.81281556469658    0.24374857423346    0.00374694218909
H         5.48672984421821   -2.49759497197819    0.04426283870460
H         4.90172413481861    0.50019168745375   -0.03416374850761
H         6.67942550487994    1.95879401476645   -0.16067956360592
H         9.07978840516873    2.46188038394446   -0.17283990761007
H        10.09259052221415    2.43772288949906    2.04475206889057
H        11.62407823953172    3.94155238389566    3.25299462464851
H        14.02153199423897    3.97364371155427    2.75485375964390
H        14.97310142674484    2.46914359786086    1.03808408576789
H        15.36703236695377    0.59922848105567   -0.93135246761062
H        15.10219122326255   -1.15668234218436   -2.65261463998833
H        12.88945307815152   -2.06192427031955   -3.18290519498410
H        10.87557037537791   -1.27482261081257   -2.00283208522277
H         9.94959004387554   -1.70171918190482    0.21254485836294
H         7.56399862022150   -2.21382344347298    0.18781960725080
H         3.72588687585234   -3.95310554088336    0.02622431922682
H         1.33460135134355   -4.50437310367995    0.01811068922032
H        -1.33411857732374   -4.50464998542935    0.00462873191689
H        -3.72550277705207   -3.95385325743728   -0.00730801102611
H        -5.48669281868188   -2.49857072051437   -0.03861936548773
H        -4.90160366411159    0.49951432591016    0.02653669940913
H        -6.67904059902815    1.95847959626686    0.15179856156079
H        -9.07937179493408    2.46170129893175    0.16589328522658
H       -10.09644317350165    2.43233770409815   -2.04999720709171
H       -11.63022795351003    3.93368522376311   -3.25845093921415
H       -14.02660357491759    3.96740878009912   -2.75525689899659
H       -14.97480194753218    2.46705355646024   -1.03301380035629
H       -15.36491939478744    0.60154177458007    0.94140598899062
H       -15.09677646283552   -1.15074452194148    2.66584208345307
H       -12.88309373599354   -2.05528735791569    3.19338636882607
H       -10.87155698952354   -1.27107396825866    2.00740351559892
H        -9.94982792242889   -1.70273939036783   -0.20877212220611
H        -7.56417021432292   -2.21488587627049   -0.18604212123057
H        -2.81307627972841    0.24318445153683   -0.01972223564746
