80
 energy: -129.052070356869 gnorm: 0.000029037321 xtb: 6.4.1 (afa7bdf)
C        -3.77234451296228    0.60326183907424    0.44484376930953
C        -2.87418942552874   -0.22545751207375   -0.11834396455130
C        -1.44465007918777   -0.10340784456369   -0.03095587307173
C        -0.74142767122208    0.88707686920141    0.64650063383170
N         0.57813383194889    0.99194037404014    0.71634537646894
C         1.38561506356783    0.12574676120022    0.12313948508586
C         2.79363708529630    0.35912631539357    0.27539221337671
C         3.76361311992513   -0.41077679306215   -0.25374611179487
C         5.18670398039649   -0.20497455873989   -0.12589953214006
C         5.75276345667486    0.84211458538219    0.61126029966618
C         7.11873936478410    0.99282125717451    0.69846402569609
C         7.97140248911718    0.10237510961399    0.04579268602454
N         9.35707122924744    0.26035747726069    0.13091287627556
C        10.26801800929874   -0.73125760609488    0.44351147293496
C        10.04865985246479   -2.05653247355360    0.79075788574765
C        11.14979387272322   -2.83569295982932    1.09101577466141
C        12.44107879463580   -2.31439010951530    1.05884199973038
C        12.66338000310814   -0.98948518898106    0.74065472581791
C        11.57252188163626   -0.18684596303761    0.43488575940689
C        11.43411438273098    1.20125617806036    0.09223870233283
C        12.34402428687752    2.23404888711525   -0.08991659943459
C        11.86817234588687    3.47849289347844   -0.45177286237829
C        10.50622833305296    3.69446053126892   -0.64851302540113
C         9.58176730084735    2.68235764191430   -0.47327863001674
C        10.05135153829908    1.43656584927887   -0.08266034284220
C         7.42323235788067   -0.94608316518814   -0.69183610275831
C         6.05622981496860   -1.09418508125273   -0.77035495553462
C         0.81215155247166   -0.95395755148822   -0.61183016261446
N         1.41194174074690   -1.93619303403301   -1.28184120670602
S         0.28734698701825   -2.88820963685385   -1.93067974876981
N        -1.01305018980414   -2.10934623552310   -1.39920053797437
C        -0.61991734116008   -1.05737834502356   -0.68181075159788
C        -5.21044448095535    0.49092467589253    0.35898533374203
C        -6.00222870645699    1.43176751117419    1.02898839797288
C        -7.37781962546064    1.37585489416358    0.98594423540673
C        -8.01376722381214    0.37140358998501    0.25860984443248
N        -9.40930576655662    0.30926888205389    0.20615406681418
C       -10.25597823208330    1.36166124743274   -0.08649130373942
C        -9.95312399546661    2.66913933736984   -0.43852693914877
C       -11.00396991284804    3.52331131182871   -0.71359355987644
C       -12.32730790125919    3.09279998618675   -0.65187710985150
C       -12.63378674561032    1.78613611496137   -0.32844751381019
C       -11.59466240000478    0.90907767058720   -0.04768578537618
C       -11.54492762688727   -0.48554254060273    0.29233062819919
C       -12.51949564149553   -1.45356016121173    0.49489269149503
C       -12.12254389463582   -2.72840727133790    0.84575071692076
C       -10.77458818047231   -3.03823465659977    1.01131969871714
C        -9.78674769224707   -2.09204357124093    0.81531255518307
C       -10.17802310386587   -0.81600313400500    0.43610203621860
C        -7.23952022433840   -0.57094213995671   -0.41759934159936
C        -5.86458207256526   -0.51267295344967   -0.36501398926379
H        -3.42004472285848    1.44554610795317    1.02589623468755
H        -3.20040240593677   -1.07566439476608   -0.70072240104800
H        -1.27017317468818    1.66546178738563    1.17937065276034
H         3.01864327260710    1.23413863553256    0.86786915109964
H         3.46742047126518   -1.27145114167496   -0.83862643181285
H         5.11486531554098    1.53932243313620    1.13103761721151
H         7.54100327534018    1.79128237546898    1.29031605254187
H         9.05105269157078   -2.46611859349499    0.83926936723999
H        11.00493172754754   -3.87140848932448    1.36089195330957
H        13.27568235187395   -2.95677987524342    1.29717637344246
H        13.66214632099915   -0.57980470797692    0.73345759962931
H        13.40106797046368    2.06098094498699    0.04472220265348
H        12.55842458943341    4.29629875769919   -0.59587600162794
H        10.16473813829328    4.67403793335924   -0.94901007500097
H         8.53090453095443    2.85621698021544   -0.64872265364060
H         8.07793451542162   -1.62636914664805   -1.21579411375953
H         5.64120210421656   -1.90615691633562   -1.34991911739574
H        -5.52189896598012    2.21304328414287    1.60080904595846
H        -7.97096416115784    2.09650743460856    1.52886892383285
H        -8.93075978142692    3.00850513414550   -0.50937285050944
H       -10.79377369835493    4.54694993018964   -0.98662932145763
H       -13.12047408975086    3.79202229500877   -0.87105111574348
H       -13.65822364071817    1.44691092459459   -0.29807570784248
H       -13.56486993752886   -1.20789223169959    0.38398578810554
H       -12.86412183244124   -3.49695233762753    1.00532580780902
H       -10.49485232999598   -4.03966522551226    1.30362000805480
H        -8.74652688241736   -2.33818212976012    0.96615580103628
H        -7.72871876473530   -1.33715071226857   -1.00047378186347
H        -5.29016222117603   -1.25000411042658   -0.90323382233092
