97
 energy: -151.298634756828 gnorm: 0.000049298143 xtb: 6.4.1 (afa7bdf)
C         2.33452565417767    2.23060767876682   -0.54759944723373
C         2.93272401434496    3.33101658292919   -0.06580566851697
C         4.36857573526862    3.43513893448008    0.10587633389478
C         4.94537713555458    4.62267672672781    0.57515601069010
C         6.31772235519257    4.68390912946622    0.72485510287744
C         7.07964187351989    3.57364581506775    0.40058892923158
C         6.42135905268157    2.43104124580203   -0.06057368305528
C         7.17634339090246    1.21377583469034   -0.42122696630406
C         8.38112358710427    1.29928502673566   -1.12233643386549
C         9.02775143294423    0.12364403209598   -1.45996748526186
C         8.47156592098910   -1.08483155370127   -1.07826794206216
C         7.27225262921608   -1.07095645608417   -0.36189879971713
C         6.61791991859497   -2.31728163325453    0.08062650278781
C         7.34924803468296   -3.48025630591999    0.33860555087247
C         6.66103796438008   -4.62036229040637    0.71957748714838
C         5.28539343126202   -4.56810095933651    0.83727969679305
C         4.63563554298998   -3.35081722608553    0.59400252639622
C         3.19555221664839   -3.24032585189383    0.73603582114198
C         2.55120075457001   -2.06523653551686    0.74871169808659
C         1.11525989950345   -1.90305215433203    0.87263582886879
C         0.58321229960261   -0.70426960382397    1.35448201336965
C        -0.77977477887308   -0.51890356863430    1.46202285275957
C        -1.65702956166473   -1.53005646038496    1.07771316498209
N        -3.04382952373797   -1.35926454451656    1.15292550748401
C        -3.94778367419425   -1.72992509023393    0.17428050917413
C        -3.72083765445641   -2.17211726162962   -1.12132457820510
C        -4.81735618290826   -2.46079333977998   -1.90958993868316
C        -6.11612890649342   -2.30367956257664   -1.43279592320585
C        -6.35007782683149   -1.83663304987677   -0.15570325517392
C        -5.26263460778976   -1.54196660572291    0.65522069275520
C        -5.13904639745507   -1.03973068459432    1.99376870548586
C        -6.06398720240812   -0.69194926354971    2.96800286397237
C        -5.60193902920861   -0.25178929370918    4.19172301394636
C        -4.23638137143145   -0.17294212138142    4.45331426324553
C        -3.29686255543737   -0.51815809375144    3.50077969890623
C        -3.75488267190157   -0.93699349221755    2.26024755228752
C        -1.13720946818903   -2.73477094857414    0.60562937988357
C         0.22415265319389   -2.91439282287346    0.50326640988738
N         5.30339377619432   -2.26432141537537    0.22052020429931
N         6.64726543975036    0.05750556694046   -0.05699412887669
N         5.10863395885853    2.37160860145467   -0.19825860492734
C         0.91330656283246    2.03821598684123   -0.73925495077001
C         0.45162755141759    0.84578566125522   -1.30648478544662
C        -0.89580183054459    0.59965137769027   -1.46566195022672
C        -1.83385775049191    1.55004340094301   -1.06907600447591
N        -3.20608169734226    1.31743020619883   -1.19484048118780
C        -4.15745033343159    1.62579627427760   -0.23884925046224
C        -3.99414380153778    2.06598153749689    1.06700006563053
C        -5.12812640869648    2.29130689549521    1.82227633547780
C        -6.40150343747976    2.06851705485437    1.30516523658340
C        -6.57074319108949    1.59524921558462    0.02014106989950
C        -5.44484131806518    1.36713942021096   -0.75900353138350
C        -5.25470568626702    0.88069979979725   -2.09565279276203
C        -6.13138179528794    0.48325401098179   -3.09516342384335
C        -5.61223462322031    0.07981962677675   -4.30855856426633
C        -4.23841385644086    0.08948437984562   -4.53538687776981
C        -3.34669114393837    0.48501020355094   -3.55675215550579
C        -3.86033229009187    0.86242402882795   -2.32468920767345
C        -1.38530662156841    2.75847053073753   -0.53500114250842
C        -0.03957982290174    2.99234431115746   -0.36710702473174
H         2.97408938692107    1.39982262523289   -0.81550522673137
H         2.36859319347851    4.20895267784352    0.21708835363823
H         4.32338514807233    5.47196759389461    0.81586492601130
H         6.79094769172753    5.58441451687729    1.09110818724883
H         8.15182035385232    3.58101221114322    0.52229676443633
H         8.78056910836229    2.25725099233420   -1.41822328425611
H         9.95186649115430    0.14779430641140   -2.02063221893017
H         8.94528370005538   -2.01467689528866   -1.35182505098760
H         8.42512373245904   -3.49042763173692    0.26201081941121
H         7.19529929129823   -5.53824703041766    0.92230596226066
H         4.71872052389083   -5.44084577692186    1.12558031541230
H         2.66455666195175   -4.17389909116753    0.86630937900345
H         3.14596762839218   -1.16382311883363    0.68153119829143
H         1.25501807718543    0.09039699363747    1.64428183380166
H        -1.17194448358924    0.42282824120213    1.81416308991201
H        -2.71986614182296   -2.28637195754062   -1.50929609337997
H        -4.66371153224394   -2.80662111613512   -2.92086815751692
H        -6.94666449068615   -2.54289591743869   -2.07980102301725
H        -7.35572911337949   -1.69670748576403    0.21067325884245
H        -7.12173806250526   -0.76988932227653    2.76794623461452
H        -6.30422006424874    0.02755027994538    4.96324125777401
H        -3.90304657172961    0.16003017363159    5.42555559362977
H        -2.24191934783358   -0.47531291567997    3.72534587562480
H        -1.81305667380485   -3.53136161001590    0.33169016038021
H         0.60419985974123   -3.84730123618332    0.11577025040327
H         1.16804610662327    0.09584374954065   -1.60840394196104
H        -1.22952846262244   -0.34307597424270   -1.87039261922716
H        -3.01378370314944    2.22358877304635    1.49035130233561
H        -5.02343232767432    2.63719577238479    2.83970385659679
H        -7.26317960861010    2.25972179826699    1.92704157999172
H        -7.55572225291898    1.40181499796003   -0.37695557748114
H        -7.19675437188716    0.49553506329715   -2.92233093651870
H        -6.27585858346126   -0.23794183563143   -5.09917509361906
H        -3.86017700121071   -0.21356662307843   -5.50093029469457
H        -2.28651569627132    0.51155186722653   -3.75702816481937
H        -2.10531142312060    3.51720349687654   -0.26651163875633
H         0.27528104007121    3.93317787707768    0.05659275213394
